FoamFile
{
    version     2.0;
    format      ascii;
    class       dictionary;
    object      blockMeshDict;
}
 
// ********* Domain *********
scale 1.0;
 
vertices
(
    (0.0 0.0 0.0)
    (10.0 0.0 0.0)
    (10.0 1.0 0.0)
    (0.0 1.0 0.0)
    (0.0 0.0 10.0)
    (10.0 0.0 10.0)
    (10.0 1.0 10.0)
    (0.0 1.0 10.0)
);
 
blocks
(
    hex (0 1 2 3 4 5 6 7) (20 1 20) simpleGrading (1 1 1)
);
 
edges
(
);
 
boundary
(
    inlet

    {
        type patch;
        faces
        (
            (0 4 7 3)
        );
    }
    outlet

    {
        type patch;
        faces
        (
            (1 5 6 2)
        );
    }
    front

    {
        type wall;
        faces
        (
            (0 1 5 4)
        );
    }
    back

    {
        type wall;
        faces
        (
            (2 3 7 6)
        );
    }
    bottom

    {
        type wall;
        faces
        (
            (0 1 2 3)
        );
    }
    top

    {
        type wall;
        faces
        (
            (4 5 6 7)
        );
    }
);
mergePatchPairs
(
);

// ************************************************************************* //
