/*----------------------------*- AmpersandCFD -*------------------------------*\ 
/*--------------------------------*- C++ -*----------------------------------*\         
| ========                 |                                                 |
| \      /  F ield         | OpenFOAM: The Open Source CFD Toolbox           |
|  \    /   O peration     | Version:  v2312                                 |
|   \  /    A nd           | Website:  www.openfoam.com                      |
|    \/     M anipulation  |                                                 |
\*---------------------------------------------------------------------------*/

/*This file is part of OpenFOAM casefiles automatically generated by AmpersandCFD*/
FoamFile
{
    version     2.0;
    format      ascii;
    class       dictionary;
    object      snappyHexMeshDict;
}
castellatedMesh true;
snap            true;
addLayers       true;
geometry
{
    ahmed.stl
    {
        type triSurfaceMesh;
        name ahmed;
    }
    box
    {
        type searchableBox;
        min (-0.5 -0.5 -0.5);
        max (1 1 1);
    }
}
castellatedMeshControls
{
    maxLocalCells 2000000;
    maxGlobalCells 5000000;
    minRefinementCells 5;
    maxLoadUnbalance 0.1;
    nCellsBetweenLevels 5;
    features
    (
        {
            file "ahmed.eMesh";
            level 3;
            }
    );
    refinementSurfaces
    {
        ahmed
        {
            level (1 3);
        }
    }
    resolveFeatureAngle 20;
    refinementRegions
    {
        // no regions specified
    };
    locationInMesh (0 0 0);
    allowFreeStandingZoneFaces false;
}
snapControls
{
    nSmoothPatch 3;
    tolerance 2.0;
    nSolveIter 100;
    nRelaxIter 8;
    nFeatureSnapIter 10;
    implicitFeatureSnap false;
    explicitFeatureSnap true;
    multiRegionFeatureSnap false;
}
addLayersControls
{
    relativeSizes true;
    layers
    {
        ahmed
        {
            nSurfaceLayers 3;
        }
    };
    expansionRatio 1.2;
    finalLayerThickness 0.3;
    minThickness 0.001;
    nGrow 0;
    featureAngle 180;
    nRelaxIter 5;
    nSmoothSurfaceNormals 1;
    nSmoothNormals 3;
    nSmoothThickness 10;
    maxFaceThicknessRatio 0.5;
    maxThicknessToMedialRatio 0.3;
    minMedianAxisAngle 90;
    minMedialAxisAngle 90;
    nBufferCellsNoExtrude 0;
    nLayerIter 10;
}
meshQualityControls
{
    maxNonOrtho 75;
    maxBoundarySkewness 4;
    maxInternalSkewness 4;
    maxConcave 180;
    minVol 1e-30;
    minTetQuality 1e-30;
    minArea 1e-30;
    minTwist 0.001;
    minDeterminant 0.001;
    minFaceWeight 0.01;
    minVolRatio 0.01;
    minTriangleTwist -1;
    nSmoothScale 4;
    errorReduction 0.75;
}
debug 0;
mergeTolerance 1e-06;