/*----------------------------*- AmpersandCFD -*------------------------------*\ 
/*--------------------------------*- C++ -*----------------------------------*\         
| ========                 |                                                 |
| \      /  F ield         | OpenFOAM: The Open Source CFD Toolbox           |
|  \    /   O peration     | Version:  v2312                                 |
|   \  /    A nd           | Website:  www.openfoam.com                      |
|    \/     M anipulation  |                                                 |
\*---------------------------------------------------------------------------*/

/*This file is part of OpenFOAM casefiles automatically generated by AmpersandCFD*/
FoamFile
{
    version     2.0;
    format      ascii;
    class       dictionary;
    object      surfaceFeatureExtractDict;
}
ahmed.stl
{
    extractionMethod    extractFromSurface; 
    includedAngle   170;
    subsetFeatures
    {
        nonManifoldEdges       no;
        openEdges       yes;
    }
    writeObj            yes;
    writeSets           no;
}